xflr5 v6.57

 Calculated polar for: NACA 4412

 1 1 Reynolds number fixed          Mach number fixed         

 xtrf =   1.000 (top)        1.000 (bottom)
 Mach =   0.100     Re =     1.000 e 6     Ncrit =   9.000

  alpha     CL        CD       CDp       Cm    Top Xtr Bot Xtr   Cpmin    Chinge    XCp    
 ------- -------- --------- --------- -------- ------- ------- -------- --------- ---------
   0.500   0.5292   0.00646   0.00155  -0.1035  0.5834  0.6337  -0.8225   0.0000   0.0000   0.0000   0.4434
   1.000   0.5765   0.00599   0.00173  -0.1013  0.5609  0.8824  -0.8648   0.0000   0.0000   0.0000   0.4230
   1.500   0.6479   0.00607   0.00183  -0.1043  0.5394  1.0000  -0.9231   0.0000   0.0000   0.0000   0.4078
   2.000   0.7014   0.00629   0.00194  -0.1037  0.5209  1.0000  -0.9737   0.0000   0.0000   0.0000   0.3941
   2.500   0.7553   0.00652   0.00207  -0.1032  0.5042  1.0000  -1.0278   0.0000   0.0000   0.0000   0.3824
